  Version,23.2;

!- ===========  GLOBAL GEOMETRY RULES ===========

  GlobalGeometryRules,
    LowerLeftCorner,         !- Starting Vertex Position
    CounterClockWise,        !- Vertex Entry Direction
    Relative;                !- Coordinate System

!- ===========  ZONES ============

  Zone,
    ground_floor,            !- Name
    0,                       !- Direction of Relative North {deg}
    0,                       !- X Origin {m}
    0,                       !- Y Origin {m}
    0,                       !- Z Origin {m}
    ,                        !- Type
    1;                       !- Multiplier

  Zone,
    first_floor,             !- Name
    0,                       !- Direction of Relative North {deg}
    0,                       !- X Origin {m}
    0,                       !- Y Origin {m}
    0,                       !- Z Origin {m}
    ,                        !- Type
    1;                       !- Multiplier

  Zone,
    second_floor,            !- Name
    0,                       !- Direction of Relative North {deg}
    0,                       !- X Origin {m}
    0,                       !- Y Origin {m}
    0,                       !- Z Origin {m}
    ,                        !- Type
    1;                       !- Multiplier

  Zone,
    top_floor,               !- Name
    0,                       !- Direction of Relative North {deg}
    0,                       !- X Origin {m}
    0,                       !- Y Origin {m}
    0,                       !- Z Origin {m}
    ,                        !- Type
    1;                       !- Multiplier

!- =============== BUILDING SURFACES: GROUND FLOOR ==================

  BuildingSurface:Detailed,
    ground_floor_floor,      !- Name
    Floor,                   !- Surface Type
    Exterior Floor,          !- Construction Name
    ground_floor,            !- Zone Name
    ,                        !- Space Name
    Ground,                  !- Outside Boundary Condition
    ,                        !- Outside Boundary Condition Object
    NoSun,                   !- Sun Exposure
    NoWind,                  !- Wind Exposure
    AutoCalculate,           !- View Factor to Ground
    4,                       !- Number of Vertices
    18,0,0,  !- X,Y,Z ==> Vertex 1 {m}
    0,0,0,  !- X,Y,Z ==> Vertex 2 {m}
    0,22,0,  !- X,Y,Z ==> Vertex 3 {m}
    18,22,0;  !- X,Y,Z ==> Vertex 4 {m}

  BuildingSurface:Detailed,
    ground_floor_roof,       !- Name
    Roof,                    !- Surface Type
    Exterior Roof,           !- Construction Name
    ground_floor,            !- Zone Name
    ,                        !- Space Name
    Outdoors,                !- Outside Boundary Condition
    ,                        !- Outside Boundary Condition Object
    SunExposed,              !- Sun Exposure
    WindExposed,             !- Wind Exposure
    AutoCalculate,           !- View Factor to Ground
    4,                       !- Number of Vertices
    0,0,4,  !- X,Y,Z ==> Vertex 1 {m}
    18,0,4,  !- X,Y,Z ==> Vertex 2 {m}
    18,2,4,  !- X,Y,Z ==> Vertex 3 {m}
    0,2,4;  !- X,Y,Z ==> Vertex 4 {m}

  BuildingSurface:Detailed,
    ground_floor_ceiling,    !- Name
    Ceiling,                 !- Surface Type
    Interior Ceiling,        !- Construction Name
    ground_floor,            !- Zone Name
    ,                        !- Space Name
    Surface,                 !- Outside Boundary Condition
    first_floor_floor,       !- Outside Boundary Condition Object
    NoSun,                   !- Sun Exposure
    NoWind,                  !- Wind Exposure
    0,                       !- View Factor to Ground
    4,                       !- Number of Vertices
    0,2,4,  !- X,Y,Z ==> Vertex 1 {m}
    18,2,4,  !- X,Y,Z ==> Vertex 2 {m}
    18,22,4,  !- X,Y,Z ==> Vertex 3 {m}
    0,22,4;  !- X,Y,Z ==> Vertex 4 {m}

  BuildingSurface:Detailed,
    ground_floor_wall_right, !- Name
    Wall,                    !- Surface Type
    Exterior Wall 1,         !- Construction Name
    ground_floor,            !- Zone Name
    ,                        !- Space Name
    Outdoors,                !- Outside Boundary Condition
    ,                        !- Outside Boundary Condition Object
    SunExposed,              !- Sun Exposure
    WindExposed,             !- Wind Exposure
    AutoCalculate,           !- View Factor to Ground
    4,                       !- Number of Vertices
    18,0,0,  !- X,Y,Z ==> Vertex 1 {m}
    18,22,0,  !- X,Y,Z ==> Vertex 2 {m}
    18,22,4,  !- X,Y,Z ==> Vertex 3 {m}
    18,0,4;  !- X,Y,Z ==> Vertex 4 {m}

  BuildingSurface:Detailed,
    ground_floor_wall_back,  !- Name
    Wall,                    !- Surface Type
    Exterior Wall 1,         !- Construction Name
    ground_floor,            !- Zone Name
    ,                        !- Space Name
    Outdoors,                !- Outside Boundary Condition
    ,                        !- Outside Boundary Condition Object
    SunExposed,              !- Sun Exposure
    WindExposed,             !- Wind Exposure
    AutoCalculate,           !- View Factor to Ground
    4,                       !- Number of Vertices
    18,22,0,  !- X,Y,Z ==> Vertex 1 {m}
    0,22,0,  !- X,Y,Z ==> Vertex 2 {m}
    0,22,4,  !- X,Y,Z ==> Vertex 3 {m}
    18,22,4;  !- X,Y,Z ==> Vertex 4 {m}

  BuildingSurface:Detailed,
    ground_floor_wall_left,  !- Name
    Wall,                    !- Surface Type
    Exterior Wall 1,         !- Construction Name
    ground_floor,            !- Zone Name
    ,                        !- Space Name
    Outdoors,                !- Outside Boundary Condition
    ,                        !- Outside Boundary Condition Object
    SunExposed,              !- Sun Exposure
    WindExposed,             !- Wind Exposure
    AutoCalculate,           !- View Factor to Ground
    4,                       !- Number of Vertices
    0,22,0,  !- X,Y,Z ==> Vertex 1 {m}
    0,0,0,  !- X,Y,Z ==> Vertex 2 {m}
    0,0,4,  !- X,Y,Z ==> Vertex 3 {m}
    0,22,4;  !- X,Y,Z ==> Vertex 4 {m}

  BuildingSurface:Detailed,
    ground_floor_wall_front, !- Name
    Wall,                    !- Surface Type
    Exterior Wall 1,         !- Construction Name
    ground_floor,            !- Zone Name
    ,                        !- Space Name
    Outdoors,                !- Outside Boundary Condition
    ,                        !- Outside Boundary Condition Object
    SunExposed,              !- Sun Exposure
    WindExposed,             !- Wind Exposure
    AutoCalculate,           !- View Factor to Ground
    4,                       !- Number of Vertices
    0,0,0,  !- X,Y,Z ==> Vertex 1 {m}
    18,0,0,  !- X,Y,Z ==> Vertex 2 {m}
    18,0,4,  !- X,Y,Z ==> Vertex 3 {m}
    0,0,4;  !- X,Y,Z ==> Vertex 4 {m}

!- =============== FENESTRATION SURFACES: GROUND FLOOR ===============

  FenestrationSurface:Detailed,
    ground_floor_wall_right_window,  !- Name
    Window,                  !- Surface Type
    Exterior Window,         !- Construction Name
    ground_floor_wall_right, !- Building Surface Name
    ,                        !- Outside Boundary Condition Object
    AutoCalculate,           !- View Factor to Ground
    1,                       !- Frame and Divider Name
    1,                       !- Multiplier
    4,                       !- Number of Vertices
    18,9,1,  !- X,Y,Z ==> Vertex 1 {m}
    18,13,1,  !- X,Y,Z ==> Vertex 2 {m}
    18,13,3,  !- X,Y,Z ==> Vertex 3 {m}
    18,9,3;  !- X,Y,Z ==> Vertex 4 {m}

  FenestrationSurface:Detailed,
    ground_floor_wall_back_window,  !- Name
    Window,                  !- Surface Type
    Exterior Window,         !- Construction Name
    ground_floor_wall_back,  !- Building Surface Name
    ,                        !- Outside Boundary Condition Object
    AutoCalculate,           !- View Factor to Ground
    1,                       !- Frame and Divider Name
    1,                       !- Multiplier
    4,                       !- Number of Vertices
    11,22,1,  !- X,Y,Z ==> Vertex 1 {m}
    7,22,1,  !- X,Y,Z ==> Vertex 2 {m}
    7,22,3,  !- X,Y,Z ==> Vertex 3 {m}
    11,22,3;  !- X,Y,Z ==> Vertex 4 {m}

  FenestrationSurface:Detailed,
    ground_floor_wall_left_window,  !- Name
    Window,                  !- Surface Type
    Exterior Window,         !- Construction Name
    ground_floor_wall_left,  !- Building Surface Name
    ,                        !- Outside Boundary Condition Object
    AutoCalculate,           !- View Factor to Ground
    1,                       !- Frame and Divider Name
    1,                       !- Multiplier
    4,                       !- Number of Vertices
    0,13,1,  !- X,Y,Z ==> Vertex 1 {m}
    0,9,1,  !- X,Y,Z ==> Vertex 2 {m}
    0,9,3,  !- X,Y,Z ==> Vertex 3 {m}
    0,13,3;  !- X,Y,Z ==> Vertex 4 {m}

  FenestrationSurface:Detailed,
    ground_floor_wall_front_window_left,  !- Name
    Window,                  !- Surface Type
    Exterior Window,         !- Construction Name
    ground_floor_wall_front, !- Building Surface Name
    ,                        !- Outside Boundary Condition Object
    AutoCalculate,           !- View Factor to Ground
    1,                       !- Frame and Divider Name
    1,                       !- Multiplier
    4,                       !- Number of Vertices
    2,0,1,  !- X,Y,Z ==> Vertex 1 {m}
    6,0,1,  !- X,Y,Z ==> Vertex 2 {m}
    6,0,3,  !- X,Y,Z ==> Vertex 3 {m}
    2,0,3;  !- X,Y,Z ==> Vertex 4 {m}

  FenestrationSurface:Detailed,
    ground_floor_wall_front_window_right,  !- Name
    Window,                  !- Surface Type
    Exterior Window,         !- Construction Name
    ground_floor_wall_front, !- Building Surface Name
    ,                        !- Outside Boundary Condition Object
    AutoCalculate,           !- View Factor to Ground
    1,                       !- Frame and Divider Name
    1,                       !- Multiplier
    4,                       !- Number of Vertices
    12,0,1,  !- X,Y,Z ==> Vertex 1 {m}
    16,0,1,  !- X,Y,Z ==> Vertex 2 {m}
    16,0,3,  !- X,Y,Z ==> Vertex 3 {m}
    12,0,3;  !- X,Y,Z ==> Vertex 4 {m}

  FenestrationSurface:Detailed,
    ground_floor_wall_door,  !- Name
    Door,                    !- Surface Type
    Exterior Door,           !- Construction Name
    ground_floor_wall_front, !- Building Surface Name
    ,                        !- Outside Boundary Condition Object
    AutoCalculate,           !- View Factor to Ground
    ,                        !- Frame and Divider Name
    1,                       !- Multiplier
    4,                       !- Number of Vertices
    8,0,0,  !- X,Y,Z ==> Vertex 1 {m}
    10,0,0,  !- X,Y,Z ==> Vertex 2 {m}
    10,0,3,  !- X,Y,Z ==> Vertex 3 {m}
    8,0,3;  !- X,Y,Z ==> Vertex 4 {m}

!- =============== BUILDING SURFACES: FIRST FLOOR ==================

  BuildingSurface:Detailed,
    first_floor_floor,       !- Name
    Floor,                   !- Surface Type
    Interior Floor,          !- Construction Name
    first_floor,             !- Zone Name
    ,                        !- Space Name
    Surface,                 !- Outside Boundary Condition
    ground_floor_ceiling,    !- Outside Boundary Condition Object
    NoSun,                   !- Sun Exposure
    NoWind,                  !- Wind Exposure
    0,                       !- View Factor to Ground
    4,                       !- Number of Vertices
    18,2,4,  !- X,Y,Z ==> Vertex 1 {m}
    0,2,4,  !- X,Y,Z ==> Vertex 2 {m}
    0,22,4,  !- X,Y,Z ==> Vertex 3 {m}
    18,22,4;  !- X,Y,Z ==> Vertex 4 {m}

  BuildingSurface:Detailed,
    first_floor_ceiling,     !- Name
    Ceiling,                 !- Surface Type
    Interior Ceiling,        !- Construction Name
    first_floor,             !- Zone Name
    ,                        !- Space Name
    Surface,                 !- Outside Boundary Condition
    second_floor_floor,      !- Outside Boundary Condition Object
    NoSun,                   !- Sun Exposure
    NoWind,                  !- Wind Exposure
    0,                       !- View Factor to Ground
    4,                       !- Number of Vertices
    0,2,8,  !- X,Y,Z ==> Vertex 1 {m}
    18,2,8,  !- X,Y,Z ==> Vertex 2 {m}
    18,22,8,  !- X,Y,Z ==> Vertex 3 {m}
    0,22,8;  !- X,Y,Z ==> Vertex 4 {m}

  BuildingSurface:Detailed,
    first_floor_wall_right,  !- Name
    Wall,                    !- Surface Type
    Exterior Wall 1,         !- Construction Name
    first_floor,             !- Zone Name
    ,                        !- Space Name
    Outdoors,                !- Outside Boundary Condition
    ,                        !- Outside Boundary Condition Object
    SunExposed,              !- Sun Exposure
    WindExposed,             !- Wind Exposure
    AutoCalculate,           !- View Factor to Ground
    4,                       !- Number of Vertices
    18,2,4,  !- X,Y,Z ==> Vertex 1 {m}
    18,22,4,  !- X,Y,Z ==> Vertex 2 {m}
    18,22,8,  !- X,Y,Z ==> Vertex 3 {m}
    18,2,8;  !- X,Y,Z ==> Vertex 4 {m}

  BuildingSurface:Detailed,
    first_floor_wall_back,   !- Name
    Wall,                    !- Surface Type
    Exterior Wall 1,         !- Construction Name
    first_floor,             !- Zone Name
    ,                        !- Space Name
    Outdoors,                !- Outside Boundary Condition
    ,                        !- Outside Boundary Condition Object
    SunExposed,              !- Sun Exposure
    WindExposed,             !- Wind Exposure
    AutoCalculate,           !- View Factor to Ground
    4,                       !- Number of Vertices
    18,22,4,  !- X,Y,Z ==> Vertex 1 {m}
    0,22,4,  !- X,Y,Z ==> Vertex 2 {m}
    0,22,8,  !- X,Y,Z ==> Vertex 3 {m}
    18,22,8;  !- X,Y,Z ==> Vertex 4 {m}

  BuildingSurface:Detailed,
    first_floor_wall_left,   !- Name
    Wall,                    !- Surface Type
    Exterior Wall 1,         !- Construction Name
    first_floor,             !- Zone Name
    ,                        !- Space Name
    Outdoors,                !- Outside Boundary Condition
    ,                        !- Outside Boundary Condition Object
    SunExposed,              !- Sun Exposure
    WindExposed,             !- Wind Exposure
    AutoCalculate,           !- View Factor to Ground
    4,                       !- Number of Vertices
    0,22,4,  !- X,Y,Z ==> Vertex 1 {m}
    0,2,4,  !- X,Y,Z ==> Vertex 2 {m}
    0,2,8,  !- X,Y,Z ==> Vertex 3 {m}
    0,22,8;  !- X,Y,Z ==> Vertex 4 {m}

  BuildingSurface:Detailed,
    first_floor_wall_front,  !- Name
    Wall,                    !- Surface Type
    Exterior Wall 1,         !- Construction Name
    first_floor,             !- Zone Name
    ,                        !- Space Name
    Outdoors,                !- Outside Boundary Condition
    ,                        !- Outside Boundary Condition Object
    SunExposed,              !- Sun Exposure
    WindExposed,             !- Wind Exposure
    AutoCalculate,           !- View Factor to Ground
    4,                       !- Number of Vertices
    0,2,4,  !- X,Y,Z ==> Vertex 1 {m}
    18,2,4,  !- X,Y,Z ==> Vertex 2 {m}
    18,2,8,  !- X,Y,Z ==> Vertex 3 {m}
    0,2,8;  !- X,Y,Z ==> Vertex 4 {m}

!- =============== FENESTRATION SURFACES: FIRST FLOOR ===============

  FenestrationSurface:Detailed,
    first_floor_wall_right_window,  !- Name
    Window,                  !- Surface Type
    Exterior Window,         !- Construction Name
    first_floor_wall_right,  !- Building Surface Name
    ,                        !- Outside Boundary Condition Object
    AutoCalculate,           !- View Factor to Ground
    1,                       !- Frame and Divider Name
    1,                       !- Multiplier
    4,                       !- Number of Vertices
    18,10,5,  !- X,Y,Z ==> Vertex 1 {m}
    18,14,5,  !- X,Y,Z ==> Vertex 2 {m}
    18,14,7,  !- X,Y,Z ==> Vertex 3 {m}
    18,10,7;  !- X,Y,Z ==> Vertex 4 {m}

  FenestrationSurface:Detailed,
    first_floor_wall_back_window,  !- Name
    Window,                  !- Surface Type
    Exterior Window,         !- Construction Name
    first_floor_wall_back,   !- Building Surface Name
    ,                        !- Outside Boundary Condition Object
    AutoCalculate,           !- View Factor to Ground
    1,                       !- Frame and Divider Name
    1,                       !- Multiplier
    4,                       !- Number of Vertices
    11,22,5,  !- X,Y,Z ==> Vertex 1 {m}
    7,22,5,  !- X,Y,Z ==> Vertex 2 {m}
    7,22,7,  !- X,Y,Z ==> Vertex 3 {m}
    11,22,7;  !- X,Y,Z ==> Vertex 4 {m}

  FenestrationSurface:Detailed,
    first_floor_wall_left_window,  !- Name
    Window,                  !- Surface Type
    Exterior Window,         !- Construction Name
    first_floor_wall_left,   !- Building Surface Name
    ,                        !- Outside Boundary Condition Object
    AutoCalculate,           !- View Factor to Ground
    1,                       !- Frame and Divider Name
    1,                       !- Multiplier
    4,                       !- Number of Vertices
    0,14,5,  !- X,Y,Z ==> Vertex 1 {m}
    0,10,5,  !- X,Y,Z ==> Vertex 2 {m}
    0,10,7,  !- X,Y,Z ==> Vertex 3 {m}
    0,14,7;  !- X,Y,Z ==> Vertex 4 {m}

  FenestrationSurface:Detailed,
    first_floor_wall_front_window,  !- Name
    Window,                  !- Surface Type
    Exterior Window,         !- Construction Name
    first_floor_wall_front,  !- Building Surface Name
    ,                        !- Outside Boundary Condition Object
    AutoCalculate,           !- View Factor to Ground
    1,                       !- Frame and Divider Name
    1,                       !- Multiplier
    4,                       !- Number of Vertices
    7,2,5,  !- X,Y,Z ==> Vertex 1 {m}
    11,2,5,  !- X,Y,Z ==> Vertex 2 {m}
    11,2,7,  !- X,Y,Z ==> Vertex 3 {m}
    7,2,7;  !- X,Y,Z ==> Vertex 4 {m}

!- =============== BUILDING SURFACES: SECOND FLOOR ==================

  BuildingSurface:Detailed,
    second_floor_floor,      !- Name
    Floor,                   !- Surface Type
    Interior Floor,          !- Construction Name
    second_floor,            !- Zone Name
    ,                        !- Space Name
    Surface,                 !- Outside Boundary Condition
    first_floor_ceiling,     !- Outside Boundary Condition Object
    NoSun,                   !- Sun Exposure
    NoWind,                  !- Wind Exposure
    0,                       !- View Factor to Ground
    4,                       !- Number of Vertices
    18,2,8,  !- X,Y,Z ==> Vertex 1 {m}
    0,2,8,  !- X,Y,Z ==> Vertex 2 {m}
    0,22,8,  !- X,Y,Z ==> Vertex 3 {m}
    18,22,8;  !- X,Y,Z ==> Vertex 4 {m}

  BuildingSurface:Detailed,
    second_floor_ceiling,    !- Name
    Ceiling,                 !- Surface Type
    Interior Ceiling,        !- Construction Name
    second_floor,            !- Zone Name
    ,                        !- Space Name
    Surface,                 !- Outside Boundary Condition
    top_floor_floor,         !- Outside Boundary Condition Object
    NoSun,                   !- Sun Exposure
    NoWind,                  !- Wind Exposure
    0,                       !- View Factor to Ground
    4,                       !- Number of Vertices
    0,12,12,  !- X,Y,Z ==> Vertex 1 {m}
    18,12,12,  !- X,Y,Z ==> Vertex 2 {m}
    18,22,12,  !- X,Y,Z ==> Vertex 3 {m}
    0,22,12;  !- X,Y,Z ==> Vertex 4 {m}

  BuildingSurface:Detailed,
    second_floor_roof,       !- Name
    Roof,                    !- Surface Type
    Exterior Roof,           !- Construction Name
    second_floor,            !- Zone Name
    ,                        !- Space Name
    Outdoors,                !- Outside Boundary Condition
    ,                        !- Outside Boundary Condition Object
    SunExposed,              !- Sun Exposure
    WindExposed,             !- Wind Exposure
    AutoCalculate,           !- View Factor to Ground
    4,                       !- Number of Vertices
    0,2,12,  !- X,Y,Z ==> Vertex 1 {m}
    18,2,12,  !- X,Y,Z ==> Vertex 2 {m}
    18,12,12,  !- X,Y,Z ==> Vertex 3 {m}
    0,12,12;  !- X,Y,Z ==> Vertex 4 {m}

  BuildingSurface:Detailed,
    second_floor_wall_right, !- Name
    Wall,                    !- Surface Type
    Exterior Wall 1,         !- Construction Name
    second_floor,            !- Zone Name
    ,                        !- Space Name
    Outdoors,                !- Outside Boundary Condition
    ,                        !- Outside Boundary Condition Object
    SunExposed,              !- Sun Exposure
    WindExposed,             !- Wind Exposure
    AutoCalculate,           !- View Factor to Ground
    4,                       !- Number of Vertices
    18,2,8,  !- X,Y,Z ==> Vertex 1 {m}
    18,22,8,  !- X,Y,Z ==> Vertex 2 {m}
    18,22,12,  !- X,Y,Z ==> Vertex 3 {m}
    18,2,12;  !- X,Y,Z ==> Vertex 4 {m}

  BuildingSurface:Detailed,
    second_floor_wall_back,  !- Name
    Wall,                    !- Surface Type
    Exterior Wall 1,         !- Construction Name
    second_floor,            !- Zone Name
    ,                        !- Space Name
    Outdoors,                !- Outside Boundary Condition
    ,                        !- Outside Boundary Condition Object
    SunExposed,              !- Sun Exposure
    WindExposed,             !- Wind Exposure
    AutoCalculate,           !- View Factor to Ground
    4,                       !- Number of Vertices
    18,22,8,  !- X,Y,Z ==> Vertex 1 {m}
    0,22,8,  !- X,Y,Z ==> Vertex 2 {m}
    0,22,12,  !- X,Y,Z ==> Vertex 3 {m}
    18,22,12;  !- X,Y,Z ==> Vertex 4 {m}

  BuildingSurface:Detailed,
    second_floor_wall_left,  !- Name
    Wall,                    !- Surface Type
    Exterior Wall 1,         !- Construction Name
    second_floor,            !- Zone Name
    ,                        !- Space Name
    Outdoors,                !- Outside Boundary Condition
    ,                        !- Outside Boundary Condition Object
    SunExposed,              !- Sun Exposure
    WindExposed,             !- Wind Exposure
    AutoCalculate,           !- View Factor to Ground
    4,                       !- Number of Vertices
    0,22,8,  !- X,Y,Z ==> Vertex 1 {m}
    0,2,8,  !- X,Y,Z ==> Vertex 2 {m}
    0,2,12,  !- X,Y,Z ==> Vertex 3 {m}
    0,22,12;  !- X,Y,Z ==> Vertex 4 {m}

  BuildingSurface:Detailed,
    second_floor_wall_front, !- Name
    Wall,                    !- Surface Type
    Exterior Wall 1,         !- Construction Name
    second_floor,            !- Zone Name
    ,                        !- Space Name
    Outdoors,                !- Outside Boundary Condition
    ,                        !- Outside Boundary Condition Object
    SunExposed,              !- Sun Exposure
    WindExposed,             !- Wind Exposure
    AutoCalculate,           !- View Factor to Ground
    4,                       !- Number of Vertices
    0,2,8,  !- X,Y,Z ==> Vertex 1 {m}
    18,2,8,  !- X,Y,Z ==> Vertex 2 {m}
    18,2,12,  !- X,Y,Z ==> Vertex 3 {m}
    0,2,12;  !- X,Y,Z ==> Vertex 4 {m}

!- =============== FENESTRATION SURFACES: SECOND FLOOR ===============

  FenestrationSurface:Detailed,
    second_floor_wall_right_window,  !- Name
    Window,                  !- Surface Type
    Exterior Window,         !- Construction Name
    second_floor_wall_right, !- Building Surface Name
    ,                        !- Outside Boundary Condition Object
    AutoCalculate,           !- View Factor to Ground
    1,                       !- Frame and Divider Name
    1,                       !- Multiplier
    4,                       !- Number of Vertices
    18,10,9,  !- X,Y,Z ==> Vertex 1 {m}
    18,14,9,  !- X,Y,Z ==> Vertex 2 {m}
    18,14,11,  !- X,Y,Z ==> Vertex 3 {m}
    18,10,11;  !- X,Y,Z ==> Vertex 4 {m}

  FenestrationSurface:Detailed,
    second_floor_wall_back_window,  !- Name
    Window,                  !- Surface Type
    Exterior Window,         !- Construction Name
    second_floor_wall_back,  !- Building Surface Name
    ,                        !- Outside Boundary Condition Object
    AutoCalculate,           !- View Factor to Ground
    1,                       !- Frame and Divider Name
    1,                       !- Multiplier
    4,                       !- Number of Vertices
    11,22,9,  !- X,Y,Z ==> Vertex 1 {m}
    7,22,9,  !- X,Y,Z ==> Vertex 2 {m}
    7,22,11,  !- X,Y,Z ==> Vertex 3 {m}
    11,22,11;  !- X,Y,Z ==> Vertex 4 {m}

  FenestrationSurface:Detailed,
    second_floor_wall_left_window,  !- Name
    Window,                  !- Surface Type
    Exterior Window,         !- Construction Name
    second_floor_wall_left,  !- Building Surface Name
    ,                        !- Outside Boundary Condition Object
    AutoCalculate,           !- View Factor to Ground
    1,                       !- Frame and Divider Name
    1,                       !- Multiplier
    4,                       !- Number of Vertices
    0,14,9,  !- X,Y,Z ==> Vertex 1 {m}
    0,10,9,  !- X,Y,Z ==> Vertex 2 {m}
    0,10,11,  !- X,Y,Z ==> Vertex 3 {m}
    0,14,11;  !- X,Y,Z ==> Vertex 4 {m}

  FenestrationSurface:Detailed,
    second_floor_wall_front_window,  !- Name
    Window,                  !- Surface Type
    Exterior Window,         !- Construction Name
    second_floor_wall_front, !- Building Surface Name
    ,                        !- Outside Boundary Condition Object
    AutoCalculate,           !- View Factor to Ground
    1,                       !- Frame and Divider Name
    1,                       !- Multiplier
    4,                       !- Number of Vertices
    7,2,9,  !- X,Y,Z ==> Vertex 1 {m}
    11,2,9,  !- X,Y,Z ==> Vertex 2 {m}
    11,2,11,  !- X,Y,Z ==> Vertex 3 {m}
    7,2,11;  !- X,Y,Z ==> Vertex 4 {m}

!- =============== BUILDING SURFACES: TOP FLOOR ==================

  BuildingSurface:Detailed,
    top_floor_floor,         !- Name
    Floor,                   !- Surface Type
    Interior Floor,          !- Construction Name
    top_floor,               !- Zone Name
    ,                        !- Space Name
    Surface,                 !- Outside Boundary Condition
    second_floor_ceiling,    !- Outside Boundary Condition Object
    NoSun,                   !- Sun Exposure
    NoWind,                  !- Wind Exposure
    0,                       !- View Factor to Ground
    4,                       !- Number of Vertices
    18,12,12,  !- X,Y,Z ==> Vertex 1 {m}
    0,12,12,  !- X,Y,Z ==> Vertex 2 {m}
    0,22,12,  !- X,Y,Z ==> Vertex 3 {m}
    18,22,12;  !- X,Y,Z ==> Vertex 4 {m}

  BuildingSurface:Detailed,
    top_floor_roof,          !- Name
    Roof,                    !- Surface Type
    Exterior Roof,           !- Construction Name
    top_floor,               !- Zone Name
    ,                        !- Space Name
    Outdoors,                !- Outside Boundary Condition
    ,                        !- Outside Boundary Condition Object
    SunExposed,              !- Sun Exposure
    WindExposed,             !- Wind Exposure
    AutoCalculate,           !- View Factor to Ground
    4,                       !- Number of Vertices
    0,12,16,  !- X,Y,Z ==> Vertex 1 {m}
    18,12,16,  !- X,Y,Z ==> Vertex 2 {m}
    18,22,16,  !- X,Y,Z ==> Vertex 3 {m}
    0,22,16;  !- X,Y,Z ==> Vertex 4 {m}

  BuildingSurface:Detailed,
    top_floor_wall_right,    !- Name
    Wall,                    !- Surface Type
    Exterior Wall 1,         !- Construction Name
    top_floor,               !- Zone Name
    ,                        !- Space Name
    Outdoors,                !- Outside Boundary Condition
    ,                        !- Outside Boundary Condition Object
    SunExposed,              !- Sun Exposure
    WindExposed,             !- Wind Exposure
    AutoCalculate,           !- View Factor to Ground
    4,                       !- Number of Vertices
    18,12,12,  !- X,Y,Z ==> Vertex 1 {m}
    18,22,12,  !- X,Y,Z ==> Vertex 2 {m}
    18,22,16,  !- X,Y,Z ==> Vertex 3 {m}
    18,12,16;  !- X,Y,Z ==> Vertex 4 {m}

  BuildingSurface:Detailed,
    top_floor_wall_back,     !- Name
    Wall,                    !- Surface Type
    Exterior Wall 1,         !- Construction Name
    top_floor,               !- Zone Name
    ,                        !- Space Name
    Outdoors,                !- Outside Boundary Condition
    ,                        !- Outside Boundary Condition Object
    SunExposed,              !- Sun Exposure
    WindExposed,             !- Wind Exposure
    AutoCalculate,           !- View Factor to Ground
    4,                       !- Number of Vertices
    18,22,12,  !- X,Y,Z ==> Vertex 1 {m}
    0,22,12,  !- X,Y,Z ==> Vertex 2 {m}
    0,22,16,  !- X,Y,Z ==> Vertex 3 {m}
    18,22,16;  !- X,Y,Z ==> Vertex 4 {m}

  BuildingSurface:Detailed,
    top_floor_wall_left,     !- Name
    Wall,                    !- Surface Type
    Exterior Wall 1,         !- Construction Name
    top_floor,               !- Zone Name
    ,                        !- Space Name
    Outdoors,                !- Outside Boundary Condition
    ,                        !- Outside Boundary Condition Object
    SunExposed,              !- Sun Exposure
    WindExposed,             !- Wind Exposure
    AutoCalculate,           !- View Factor to Ground
    4,                       !- Number of Vertices
    0,22,12,  !- X,Y,Z ==> Vertex 1 {m}
    0,12,12,  !- X,Y,Z ==> Vertex 2 {m}
    0,12,16,  !- X,Y,Z ==> Vertex 3 {m}
    0,22,16;  !- X,Y,Z ==> Vertex 4 {m}

  BuildingSurface:Detailed,
    top_floor_wall_front,    !- Name
    Wall,                    !- Surface Type
    Exterior Wall 1,         !- Construction Name
    top_floor,               !- Zone Name
    ,                        !- Space Name
    Outdoors,                !- Outside Boundary Condition
    ,                        !- Outside Boundary Condition Object
    SunExposed,              !- Sun Exposure
    WindExposed,             !- Wind Exposure
    AutoCalculate,           !- View Factor to Ground
    4,                       !- Number of Vertices
    0,12,12,  !- X,Y,Z ==> Vertex 1 {m}
    18,12,12,  !- X,Y,Z ==> Vertex 2 {m}