!- Darwin Line endings
Version,
    23.2;                     !- Version Identifier
SimulationControl,
    Yes,                      !- Do Zone Sizing Calculation
    Yes,                      !- Do System Sizing Calculation
    No,                       !- Do Plant Sizing Calculation
    Yes,                      !- Run Simulation for Sizing Periods
    Yes,                      !- Run Simulation for Weather File Run Periods
    ,                         !- Do HVAC Sizing Simulation for Sizing Periods
    ;                         !- Maximum Number of HVAC Sizing Simulation Passes
Building,
    KW_villa_Abdullah_Al_Mubarak,    !- Name
    -90,                      !- North Axis
    Suburbs,                  !- Terrain
    0.04,                     !- Loads Convergence Tolerance Value
    0.4,                      !- Temperature Convergence Tolerance Value
    FullExteriorWithReflections,    !- Solar Distribution
    25,                       !- Maximum Number of Warmup Days
    6;                        !- Minimum Number of Warmup Days
ShadowCalculation,
    PolygonClipping,          !- Shading Calculation Method
    Periodic,                 !- Shading Calculation Update Frequency Method
    7,                        !- Shading Calculation Update Frequency
    15000,                    !- Maximum Figures in Shadow Overlap Calculations
    SutherlandHodgman,        !- Polygon Clipping Algorithm
    ,                         !- Pixel Counting Resolution
    SimpleSkyDiffuseModeling;    !- Sky Diffuse Modeling Algorithm
SurfaceConvectionAlgorithm:Inside,
    TARP;                     !- Algorithm
Timestep,
    6;                        !- Number of Timesteps per Hour
Site:Location,
    Kuwait_Abdullah_Al_Mubarak,    !- Name
    29.23,                    !- Latitude
    47.85,                    !- Longitude
    3,                        !- Time Zone
    48;                       !- Elevation
SizingPeriod:DesignDay,
    Winter Design Day in KW villa,    !- Name
    12,                       !- Month
    21,                       !- Day of Month
    WinterDesignDay,          !- Day Type
    4,                        !- Maximum DryBulb Temperature
    0,                        !- Daily DryBulb Temperature Range
    DefaultMultipliers,       !- DryBulb Temperature Range Modifier Type
    ,                         !- DryBulb Temperature Range Modifier Day Schedule Name
    Wetbulb,                  !- Humidity Condition Type
    4,                        !- Wetbulb or DewPoint at Maximum DryBulb
    ,                         !- Humidity Condition Day Schedule Name
    ,                         !- Humidity Ratio at Maximum DryBulb
    ,                         !- Enthalpy at Maximum DryBulb
    ,                         !- Daily WetBulb Temperature Range
    100749.7,                 !- Barometric Pressure
    2.2,                      !- Wind Speed
    300,                      !- Wind Direction
    No,                       !- Rain Indicator
    No,                       !- Snow Indicator
    No,                       !- Daylight Saving Time Indicator
    ASHRAEClearSky,           !- Solar Model Indicator
    ,                         !- Beam Solar Day Schedule Name
    ,                         !- Diffuse Solar Day Schedule Name
    ,                         !- ASHRAE Clear Sky Optical Depth for Beam Irradiance taub
    ,                         !- ASHRAE Clear Sky Optical Depth for Diffuse Irradiance taud
    0;                        !- Sky Clearness
SizingPeriod:DesignDay,
    Summer Design Day in KW villa,    !- Name
    7,                        !- Month
    21,                       !- Day of Month
    SummerDesignDay,          !- Day Type
    49.2,                     !- Maximum DryBulb Temperature
    16.5,                     !- Daily DryBulb Temperature Range
    DefaultMultipliers,       !- DryBulb Temperature Range Modifier Type
    ,                         !- DryBulb Temperature Range Modifier Day Schedule Name
    Wetbulb,                  !- Humidity Condition Type
    21.2,                     !- Wetbulb or DewPoint at Maximum DryBulb
    ,                         !- Humidity Condition Day Schedule Name
    ,                         !- Humidity Ratio at Maximum DryBulb
    ,                         !- Enthalpy at Maximum DryBulb
    ,                         !- Daily WetBulb Temperature Range
    100749.7,                 !- Barometric Pressure
    0,                        !- Wind Speed
    0,                        !- Wind Direction
    No,                       !- Rain Indicator
    No,                       !- Snow Indicator
    No,                       !- Daylight Saving Time Indicator
    ASHRAEClearSky,           !- Solar Model Indicator
    ,                         !- Beam Solar Day Schedule Name
    ,                         !- Diffuse Solar Day Schedule Name
    ,                         !- ASHRAE Clear Sky Optical Depth for Beam Irradiance taub
    ,                         !- ASHRAE Clear Sky Optical Depth for Diffuse Irradiance taud
    0.98;                     !- Sky Clearness
RunPeriod,
    annual,                   !- Name
    1,                        !- Begin Month
    1,                        !- Begin Day of Month
    ,                         !- Begin Year
    12,                       !- End Month
    31,                       !- End Day of Month
    ,                         !- End Year
    Sunday,                   !- Day of Week for Start Day
    Yes,                      !- Use Weather File Holidays and Special Days
    Yes,                      !- Use Weather File Daylight Saving Period
    No,                       !- Apply Weekend Holiday Rule
    Yes,                      !- Use Weather File Rain Indicators
    Yes,                      !- Use Weather File Snow Indicators
    ;                         !- Treat Weather as Actual
! Site:GroundTemperature:BuildingSurface,
!     18,                       !- January Ground Temperature
!     18,                       !- February Ground Temperature
!     18,                       !- March Ground Temperature
!     18,                       !- April Ground Temperature
!     18,                       !- May Ground Temperature
!     18,                       !- June Ground Temperature
!     18,                       !- July Ground Temperature
!     18,                       !- August Ground Temperature
!     18,                       !- September Ground Temperature
!     18,                       !- October Ground Temperature
!     18,                       !- November Ground Temperature
!     18;                       !- December Ground Temperature
Site:GroundTemperature:FCfactorMethod,
    20.2,                     !- January Ground Temperature
    16.45,                    !- February Ground Temperature
    15.43,                    !- March Ground Temperature
    16.31,                    !- April Ground Temperature
    21.38,                    !- May Ground Temperature
    27.05,                    !- June Ground Temperature
    32.39,                    !- July Ground Temperature
    36.26,                    !- August Ground Temperature
    37.39,                    !- September Ground Temperature
    35.57,                    !- October Ground Temperature
    31.2,                     !- November Ground Temperature
    25.68;                    !- December Ground Temperature
Site:GroundTemperature:Shallow,
    14,                       !- January Surface Ground Temperature
    14,                       !- February Surface Ground Temperature
    14,                       !- March Surface Ground Temperature
    14,                       !- April Surface Ground Temperature
    14,                       !- May Surface Ground Temperature
    14,                       !- June Surface Ground Temperature
    14,                       !- July Surface Ground Temperature
    14,                       !- August Surface Ground Temperature
    14,                       !- September Surface Ground Temperature
    14,                       !- October Surface Ground Temperature
    14,                       !- November Surface Ground Temperature
    14;                       !- December Surface Ground Temperature
Site:GroundTemperature:Deep,
    14,                       !- January Deep Ground Temperature
    14,                       !- February Deep Ground Temperature
    14,                       !- March Deep Ground Temperature
    14,                       !- April Deep Ground Temperature
    14,                       !- May Deep Ground Temperature
    14,                       !- June Deep Ground Temperature
    14,                       !- July Deep Ground Temperature
    14,                       !- August Deep Ground Temperature
    14,                       !- September Deep Ground Temperature
    14,                       !- October Deep Ground Temperature
    14,                       !- November Deep Ground Temperature
    14;                       !- December Deep Ground Temperature
Site:GroundReflectance,
    0.2,                      !- January Ground Reflectance
    0.2,                      !- February Ground Reflectance
    0.2,                      !- March Ground Reflectance
    0.2,                      !- April Ground Reflectance
    0.2,                      !- May Ground Reflectance
    0.2,                      !- June Ground Reflectance
    0.2,                      !- July Ground Reflectance
    0.2,                      !- August Ground Reflectance
    0.2,                      !- September Ground Reflectance
    0.2,                      !- October Ground Reflectance
    0.2,                      !- November Ground Reflectance
    0.2;                      !- December Ground Reflectance
Site:GroundReflectance:SnowModifier,
    2,                        !- Ground Reflected Solar Modifier
    2;                        !- Daylighting Ground Reflected Solar Modifier
Site:WaterMainsTemperature,
    Correlation,              !- Calculation Method
    ,                         !- Temperature Schedule Name
    27.89,                    !- Annual Average Outdoor Air Temperature
    19.3;                     !- Maximum Difference In Monthly Average Outdoor Air Temperatures
ScheduleTypeLimits,
    any number;               !- Name
ScheduleTypeLimits,
    On/Off,                   !- Name
    0,                        !- Lower Limit Value
    1,                        !- Upper Limit Value
    Discrete;                 !- Numeric Type
ScheduleTypeLimits,
    control_type,             !- Name
    0,                        !- Lower Limit Value
    4,                        !- Upper Limit Value
    Discrete;                 !- Numeric Type
ScheduleTypeLimits,
    fraction,                 !- Name
    0,                        !- Lower Limit Value
    1,                        !- Upper Limit Value
    Continuous;               !- Numeric Type
ScheduleTypeLimits,
    Temperature,              !- Name
    -60,                      !- Lower Limit Value
    200,                      !- Upper Limit Value
    Continuous;               !- Numeric Type
Schedule:Day:Hourly,
    0,                        !- Name
    any number,               !- Schedule Type Limits Name
    0,                        !- Hour 1
    0,                        !- Hour 2
    0,                        !- Hour 3
    0,                        !- Hour 4
    0,                        !- Hour 5
    0,                        !- Hour 6
    0,                        !- Hour 7
    0,                        !- Hour 8
    0,                        !- Hour 9
    0,                        !- Hour 10
    0,                        !- Hour 11
    0,                        !- Hour 12
    0,                        !- Hour 13
    0,                        !- Hour 14
    0,                        !- Hour 15
    0,                        !- Hour 16
    0,                        !- Hour 17
    0,                        !- Hour 18
    0,                        !- Hour 19
    0,                        !- Hour 20
    0,                        !- Hour 21
    0,                        !- Hour 22
    0,                        !- Hour 23
    0;                        !- Hour 24
Schedule:Day:Hourly,
    50,                       !- Name
    any number,               !- Schedule Type Limits Name
    50,                       !- Hour 1
    50,                       !- Hour 2
    50,                       !- Hour 3
    50,                       !- Hour 4
    50,                       !- Hour 5
    50,                       !- Hour 6
    50,                       !- Hour 7
    50,                       !- Hour 8
    50,                       !- Hour 9
    50,                       !- Hour 10
    50,                       !- Hour 11
    50,                       !- Hour 12
    50,                       !- Hour 13
    50,                       !- Hour 14
    50,                       !- Hour 15
    50,                       !- Hour 16
    50,                       !- Hour 17
    50,                       !- Hour 18
    50,                       !- Hour 19
    50,                       !- Hour 20
    50,                       !- Hour 21
    50,                       !- Hour 22
    50,                       !- Hour 23
    50;                       !- Hour 24
Schedule:Day:Hourly,
    Off,                      !- Name
    fraction,                 !- Schedule Type Limits Name
    0,                        !- Hour 1
    0,                        !- Hour 2
    0,                        !- Hour 3
    0,                        !- Hour 4
    0,                        !- Hour 5
    0,                        !- Hour 6
    0,                        !- Hour 7
    0,                        !- Hour 8
    0,                        !- Hour 9
    0,                        !- Hour 10
    0,                        !- Hour 11
    0,                        !- Hour 12
    0,                        !- Hour 13
    0,                        !- Hour 14
    0,                        !- Hour 15
    0,                        !- Hour 16
    0,                        !- Hour 17
    0,                        !- Hour 18
    0,                        !- Hour 19
    0,                        !- Hour 20
    0,                        !- Hour 21
    0,                        !- Hour 22
    0,                        !- Hour 23
    0;                        !- Hour 24
Schedule:Day:Hourly,
    OccupancyDay,             !- Name
    fraction,                 !- Schedule Type Limits Name
    1,                        !- Hour 1
    1,                        !- Hour 2
    1,                        !- Hour 3
    1,                        !- Hour 4
    1,                        !- Hour 5
    1,                        !- Hour 6
    1,                        !- Hour 7
    0.8831,                   !- Hour 8
    0.40861,                  !- Hour 9
    0.24189,                  !- Hour 10
    0.24189,                  !- Hour 11
    0.24189,                  !- Hour 12
    0.24189,                  !- Hour 13
    0.24189,                  !- Hour 14
    0.24189,                  !- Hour 15
    0.24189,                  !- Hour 16
    0.29498,                  !- Hour 17
    0.5531,                   !- Hour 18
    0.89693,                  !- Hour 19
    0.89693,                  !- Hour 20
    0.89693,                  !- Hour 21
    1,                        !- Hour 22
    1,                        !- Hour 23
    1;                        !- Hour 24
Schedule:Day:Hourly,
    LightingDay,              !- Name
    fraction,                 !- Schedule Type Limits Name
    0.0625,                   !- Hour 1
    0.0625,                   !- Hour 2
    0.0625,                   !- Hour 3
    0.0625,                   !- Hour 4
    0.1875,                   !- Hour 5
    0.390625,                 !- Hour 6
    0.4375,                   !- Hour 7
    0.390625,                 !- Hour 8
    0.171875,                 !- Hour 9
    0.1171875,                !- Hour 10
    0.1171875,                !- Hour 11
    0.1171875,                !- Hour 12
    0.1171875,                !- Hour 13
    0.1171875,                !- Hour 14
    0.1171875,                !- Hour 15
    0.203125,                 !- Hour 16
    0.4375,                   !- Hour 17
    0.609375,                 !- Hour 18
    0.8203125,                !- Hour 19
    0.984375,                 !- Hour 20
    1,                        !- Hour 21
    0.6875,                   !- Hour 22
    0.3828125,                !- Hour 23
    0.15625;                  !- Hour 24
Schedule:Day:Hourly,
    LightingDay_EELighting_OccSensors,    !- Name
    fraction,                 !- Schedule Type Limits Name
    0.065170403,              !- Hour 1
    0.065170403,              !- Hour 2
    0.065170403,              !- Hour 3
    0.065170403,              !- Hour 4
    0.195511208,              !- Hour 5
    0.407315016,              !- Hour 6
    0.456192818,              !- Hour 7
    0.407315016,              !- Hour 8
    0.179218607,              !- Hour 9
    0.122194505,              !- Hour 10
    0.122194505,              !- Hour 11
    0.122194505,              !- Hour 12
    0.122194505,              !- Hour 13
    0.122194505,              !- Hour 14
    0.122194505,              !- Hour 15
    0.211803808,              !- Hour 16
    0.456192818,              !- Hour 17
    0.635411425,              !- Hour 18
    0.855361533,              !- Hour 19
    0.947933128,              !- Hour 20
    0.947933128,              !- Hour 21
    0.716874428,              !- Hour 22
    0.399168715,              !- Hour 23
    0.162926006;              !- Hour 24
Schedule:Day:Hourly,
    LightingDay_EELighting_Garage_OccSensors,    !- Name
    fraction,                 !- Schedule Type Limits Name
    0.048125,                 !- Hour 1
    0.048125,                 !- Hour 2
    0.048125,                 !- Hour 3
    0.048125,                 !- Hour 4
    0.144375,                 !- Hour 5
    0.30078125,               !- Hour 6
    0.336875,                 !- Hour 7
    0.30078125,               !- Hour 8
    0.13234375,               !- Hour 9
    0.090234375,              !- Hour 10
    0.090234375,              !- Hour 11
    0.090234375,              !- Hour 12
    0.090234375,              !- Hour 13
    0.090234375,              !- Hour 14
    0.090234375,              !- Hour 15
    0.15640625,               !- Hour 16
    0.336875,                 !- Hour 17
    0.46921875,               !- Hour 18
    0.631640625,              !- Hour 19
    0.7,                      !- Hour 20
    0.7,                      !- Hour 21
    0.529375,                 !- Hour 22
    0.294765625,              !- Hour 23
    0.1203125;                !- Hour 24
Schedule:Day:Hourly,
    ExteriorLightingDay,      !- Name
    fraction,                 !- Schedule Type Limits Name
    1,                        !- Hour 1
    1,                        !- Hour 2
    1,                        !- Hour 3
    1,                        !- Hour 4
    1,                        !- Hour 5
    1,                        !- Hour 6
    0,                        !- Hour 7
    0,                        !- Hour 8
    0,                        !- Hour 9
    0,                        !- Hour 10
    0,                        !- Hour 11
    0,                        !- Hour 12
    0,                        !- Hour 13
    0,                        !- Hour 14
    0,                        !- Hour 15
    0,                        !- Hour 16
    0,                        !- Hour 17
    0,                        !- Hour 18
    1,                        !- Hour 19
    1,                        !- Hour 20
    1,                        !- Hour 21
    1,                        !- Hour 22
    1,                        !- Hour 23
    1;                        !- Hour 24
Schedule:Day:Hourly,
    LightingDay_EELighting,    !- Name
    fraction,                 !- Schedule Type Limits Name
    0.06875,                  !- Hour 1
    0.06875,                  !- Hour 2
    0.06875,                  !- Hour 3
    0.06875,                  !- Hour 4
    0.20625,                  !- Hour 5
    0.4296875,                !- Hour 6
    0.48125,                  !- Hour 7
    0.4296875,                !- Hour 8
    0.1890625,                !- Hour 9
    0.12890625,               !- Hour 10
    0.12890625,               !- Hour 11
    0.12890625,               !- Hour 12
    0.12890625,               !- Hour 13
    0.12890625,               !- Hour 14
    0.12890625,               !- Hour 15
    0.2234375,                !- Hour 16
    0.48125,                  !- Hour 17
    0.6703125,                !- Hour 18
    0.90234375,               !- Hour 19
    1,                        !- Hour 20
    1,                        !- Hour 21
    0.75625,                  !- Hour 22
    0.42109375,               !- Hour 23
    0.171875;                 !- Hour 24
Schedule:Day:Hourly,
    RefrigeratorDay,          !- Name
    fraction,                 !- Schedule Type Limits Name
    0.8,                      !- Hour 1
    0.782696177062374,        !- Hour 2
    0.765593561368209,        !- Hour 3
    0.742857142857143,        !- Hour 4
    0.731388329979879,        !- Hour 5
    0.731388329979879,        !- Hour 6
    0.759959758551308,        !- Hour 7
    0.8,                      !- Hour 8
    0.817102615694165,        !- Hour 9
    0.828571428571429,        !- Hour 10
    0.8,                      !- Hour 11
    0.8,                      !- Hour 12
    0.839839034205231,        !- Hour 13
    0.839839034205231,        !- Hour 14
    0.828571428571429,        !- Hour 15
    0.839839034205231,        !- Hour 16
    0.885714285714286,        !- Hour 17
    0.971428571428572,        !- Hour 18
    1,                        !- Hour 19
    0.971428571428572,        !- Hour 20
    0.942857142857143,        !- Hour 21
    0.925553319919517,        !- Hour 22
    0.885714285714286,        !- Hour 23
    0.828571428571429;        !- Hour 24
Schedule:Day:Hourly,
    MiscPlugLoadDay,          !- Name
    fraction,                 !- Schedule Type Limits Name
    0.607490272373541,        !- Hour 1
    0.559338521400778,        !- Hour 2
    0.552853437094682,        !- Hour 3
    0.545071335927367,        !- Hour 4
    0.524481193255512,        !- Hour 5
    0.585278858625162,        !- Hour 6
    0.676232166018158,        !- Hour 7
    0.718547341115435,        !- Hour 8
    0.607490272373541,        !- Hour 9
    0.517023346303502,        !- Hour 10
    0.529182879377432,        !- Hour 11
    0.529345006485084,        !- Hour 12
    0.520428015564202,        !- Hour 13
    0.538424124513619,        !- Hour 14
    0.568741893644617,        !- Hour 15
    0.600356679636835,        !- Hour 16
    0.71011673151751,         !- Hour 17
    0.862678339818418,        !- Hour 18
    0.936608300907912,        !- Hour 19
    0.966763942931258,        !- Hour 20
    1,                        !- Hour 21
    0.976653696498055,        !- Hour 22
    0.845168612191959,        !- Hour 23
    0.73443579766537;         !- Hour 24
Schedule:Day:Hourly,
    CookingRangeDay,          !- Name
    fraction,                 !- Schedule Type Limits Name
    0.04715848452508,         !- Hour 1
    0.04715848452508,         !- Hour 2
    0.0235458911419424,       !- Hour 3
    0.0235458911419424,       !- Hour 4
    0.04715848452508,         !- Hour 5
    0.0707043756670224,       !- Hour 6
    0.165088046958378,        !- Hour 7
    0.283017609391676,        !- Hour 8
    0.306563500533618,        !- Hour 9
    0.320771077908218,        !- Hour 10
    0.283017609391676,        !- Hour 11
    0.330176093916756,        !- Hour 12
    0.377334578441836,        !- Hour 13
    0.306563500533618,        !- Hour 14
    0.292422625400213,        !- Hour 15
    0.377334578441836,        !- Hour 16
    0.613193703308431,        !- Hour 17
    1,                        !- Hour 18
    0.778348452508004,        !- Hour 19
    0.400947171824973,        !- Hour 20
    0.235859124866596,        !- Hour 21
    0.165088046958378,        !- Hour 22
    0.103721985058698,        !- Hour 23
    0.0707043756670224;       !- Hour 24
Schedule:Day:Hourly,
    DishwasherWeekday,        !- Name
    fraction,                 !- Schedule Type Limits Name
    0.115858456545258,        !- Hour 1
    0.0514758745041469,       !- Hour 2
    0.0385691669671833,       !- Hour 3
    0.0257379372520738,       !- Hour 4
    0.0257379372520738,       !- Hour 5
    0.0772138117562207,       !- Hour 6
    0.154503101334295,        !- Hour 7
    0.23179239091237,         !- Hour 8
    0.437922322394519,        !- Hour 9
    0.489398196898665,        !- Hour 10
    0.425015614857555,        !- Hour 11
    0.360633032816445,        !- Hour 12
    0.309081680490443,        !- Hour 13
    0.347726325279481,        !- Hour 14
    0.28334374323837,         !- Hour 15
    0.270437035701407,        !- Hour 16
    0.28334374323837,         !- Hour 17
    0.373464262531554,        !- Hour 18
    0.656883483591778,        !- Hour 19
    0.837199999999997,        !- Hour 20
    0.682621420843852,        !- Hour 21
    0.502304904435629,        !- Hour 22
    0.334819617742518,        !- Hour 23
    0.23179239091237;         !- Hour 24
Schedule:Day:Hourly,
    DishwasherWeekend,        !- Name
    fraction,                 !- Schedule Type Limits Name
    0.124134060584205,        !- Hour 1
    0.0551527226830148,       !- Hour 2
    0.0413241074648395,       !- Hour 3
    0.0275763613415074,       !- Hour 4
    0.0275763613415074,       !- Hour 5
    0.0827290840245222,       !- Hour 6
    0.165539037143888,        !- Hour 7
    0.248348990263252,        !- Hour 8
    0.469202488279841,        !- Hour 9
    0.524355210962856,        !- Hour 10
    0.455373873061666,        !- Hour 11
    0.386392535160476,        !- Hour 12
    0.331158943382618,        !- Hour 13
    0.3725639199423,          !- Hour 14
    0.303582582041111,        !- Hour 15
    0.289753966822935,        !- Hour 16
    0.303582582041111,        !- Hour 17
    0.400140281283808,        !- Hour 18
    0.703803732419762,        !- Hour 19
    0.897,                    !- Hour 20
    0.731380093761269,        !- Hour 21
    0.538183826181031,        !- Hour 22
    0.358735304724125,        !- Hour 23
    0.248348990263252;        !- Hour 24
Schedule:Day:Hourly,
    DishwasherVacation,       !- Name
    fraction,                 !- Schedule Type Limits Name
    0,                        !- Hour 1
    0,                        !- Hour 2
    0,                        !- Hour 3
    0,                        !- Hour 4
    0,                        !- Hour 5
    0,                        !- Hour 6
    0,                        !- Hour 7
    0,                        !- Hour 8
    0,                        !- Hour 9
    0,                        !- Hour 10
    0,                        !- Hour 11
    0,                        !- Hour 12
    0,                        !- Hour 13
    0,                        !- Hour 14
    0,                        !- Hour 15
    0,                        !- Hour 16
    0,                        !- Hour 17
    0,                        !- Hour 18
    0,                        !- Hour 19
    0,                        !- Hour 20
    0,                        !- Hour 21
    0,                        !- Hour 22
    0,                        !- Hour 23
    0;                        !- Hour 24
Schedule:Day:Hourly,
    ClothesWasherWeekday,     !- Name
    fraction,                 !- Schedule Type Limits Name
    0.0796474528960224,       !- Hour 1
    0.0637009071877185,       !- Hour 2
    0.0318078157711097,       !- Hour 3
    0.0318078157711097,       !- Hour 4
    0.0637009071877185,       !- Hour 5
    0.0955939986043261,       !- Hour 6
    0.191187997208654,        !- Hour 7
    0.414354361479414,        !- Hour 8
    0.62157418004187,         !- Hour 9
    0.7332,                   !- Hour 10
    0.717253454291697,        !- Hour 11
    0.637520725750175,        !- Hour 12
    0.573734542916957,        !- Hour 13
    0.510033635729239,        !- Hour 14
    0.446247452896022,        !- Hour 15
    0.414354361479414,        !- Hour 16
    0.430300907187718,        !- Hour 17
    0.414354361479414,        !- Hour 18
    0.414354361479414,        !- Hour 19
    0.414354361479414,        !- Hour 20
    0.414354361479414,        !- Hour 21
    0.398407815771109,        !- Hour 22
    0.270920725750174,        !- Hour 23
    0.143433635729239;        !- Hour 24
Schedule:Day:Hourly,
    ClothesWasherWeekend,     !- Name
    fraction,                 !- Schedule Type Limits Name
    0.0974410327983253,       !- Hour 1
    0.0779319609211445,       !- Hour 2
    0.038913817166783,        !- Hour 3
    0.038913817166783,        !- Hour 4
    0.0779319609211445,       !- Hour 5
    0.116950104675506,        !- Hour 6
    0.233900209351012,        !- Hour 7
    0.506922889043964,        !- Hour 8
    0.760436496859734,        !- Hour 9
    0.897,                    !- Hour 10
    0.877490928122819,        !- Hour 11
    0.779945568736915,        !- Hour 12
    0.701909281228193,        !- Hour 13
    0.623977320307048,        !- Hour 14
    0.545941032798325,        !- Hour 15
    0.506922889043964,        !- Hour 16
    0.526431960921144,        !- Hour 17
    0.506922889043964,        !- Hour 18
    0.506922889043964,        !- Hour 19
    0.506922889043964,        !- Hour 20
    0.506922889043964,        !- Hour 21
    0.487413817166783,        !- Hour 22
    0.331445568736915,        !- Hour 23
    0.175477320307048;        !- Hour 24
Schedule:Day:Hourly,
    ClothesWasherVacation,    !- Name
    fraction,                 !- Schedule Type Limits Name
    0,                        !- Hour 1
    0,                        !- Hour 2
    0,                        !- Hour 3